Codigos/Simulacoes/57/06 - EE/ieee57_8_0800_EE.txt
================================================================================= 
=== UFF - Doutorado em Computação - Aplicaçoes em Sistemas de Potencia        === 
=== ESTIMADOR DE ESTADO MÍNIMOS QUADRADOS PONDERADOS INCLUINDO MEDIDAS DE PMU === 
=== Desenvolvido por: Rui Menezes de Moraes - 2009                            === 
================================================================================= 
Arquivo de medidores:          F:\Documents\Uff\Artigos\SimSEP\VERSAO WELDAN V2\Codigos\Med\ieee57_8_0800.med
Arquivo do sistema:            F:\Documents\Uff\Artigos\SimSEP\VERSAO WELDAN V2\Codigos\Carga\ieee57_8_0800.txt
Tolerância entre iteraçoes:     1.00e-04
Limite de iteraçoes:           100

--- DADOS DA REDE --------------------------------------------------------------- 
Data do caso:                  08/25/93
Origem:                        UW ARCHIVE          
MVA base:                      100
Ano:                           1961
Estação:                       W
Identificação:                 IEEE 57 Bus Test Case
Número de barras:              57 
Número de ramos:               80 
Referência na barra:           1

--- TELEMEDIDAS ------------------------------------------------------------------
    Tipo 1 = Fluxo de potencia ativa        Tipo  6 = Módulo da tensão            
    Tipo 2 = Injeção de potencia ativa      Tipo  7 = Corrente de ramo (real)     
    Tipo 3 = Ângulo de fase da tensão       Tipo  8 = Corrente de ramo (imag)     
    Tipo 4 = Fluxo de potencia reativa      Tipo  9 = Injeção de corrente (real)  
    Tipo 5 = Injeção de potencia reativa    Tipo 10 = Injeção de corrente (imag)  
----------------------------------------------------------------------------------
   N    D    P TP  PN ST   Exa   FS       DP      V_Ref      V_Med          E(%) 
----------------------------------------------------------------------------------
   1    0    1  6   0  0 0.015 01.1  0.00520   +1.04000   +1.03639     -0.347115 
   2    0    2  6   0  0 0.015 01.1  0.00505   +1.01000   +0.99514     -1.471287 
   3    0    3  6   0  0 0.015 01.1  0.00504   +1.00880   +1.00302     -0.572958 
   4    0    4  6   0  0 0.015 01.1  0.00497   +0.99367   +1.00371     +1.010396 
   5    0    5  6   0  0 0.015 01.1  0.00489   +0.97827   +0.97186     -0.655238 
   6    0    6  6   0  0 0.015 01.1  0.00490   +0.98000   +0.98827     +0.843878 
   7    0    7  6   0  0 0.015 01.1  0.00490   +0.97914   +0.98007     +0.094981 
   8    0    8  6   0  0 0.015 01.1  0.00502   +1.00500   +0.99457     -1.037811 
   9    0    9  6   0  0 0.015 01.1  0.00490   +0.98106   +0.98180     +0.075429 
  10    0   10  6   0  0 0.015 01.1  0.00489   +0.97836   +0.97200     -0.650067 
  11    0   11  6   0  0 0.015 01.1  0.00484   +0.96888   +0.97513     +0.645075 
  12    0   12  6   0  0 0.015 01.1  0.00507   +1.01500   +1.02214     +0.703448 
  13    0   13  6   0  0 0.015 01.1  0.00487   +0.97422   +0.97274     -0.151916 
  14    0   14  6   0  0 0.015 01.1  0.00482   +0.96439   +0.95519     -0.953971 
  15    0   15  6   0  0 0.015 01.1  0.00494   +0.98880   +0.97798     -1.094256 
  16    0   16  6   0  0 0.015 01.1  0.00507   +1.01446   +1.00754     -0.682136 
  17    0   17  6   0  0 0.015 01.1  0.00509   +1.01779   +1.02193     +0.406764 
  18    0   18  6   0  0 0.015 01.1  0.00502   +1.00388   +1.01310     +0.918436 
  19    0   19  6   0  0 0.015 01.1  0.00477   +0.95476   +0.95957     +0.503792 
  20    0   20  6   0  0 0.015 01.1  0.00471   +0.94117   +0.93515     -0.639629 
  21    0   21  6   0  0 0.015 01.1  0.00493   +0.98590   +0.97532     -1.073131 
  22    0   22  6   0  0 0.015 01.1  0.00493   +0.98623   +0.97871     -0.762500 
  23    0   23  6   0  0 0.015 01.1  0.00492   +0.98396   +0.98963     +0.576243 
  24    0   24  6   0  0 0.015 01.1  0.00483   +0.96592   +0.95351     -1.284785 
  25    0   25  6   0  0 0.015 01.1  0.00464   +0.92754   +0.92751     -0.003234 
  26    0   26  6   0  0 0.015 01.1  0.00465   +0.92978   +0.94334     +1.458410 
  27    0   27  6   0  0 0.015 01.1  0.00480   +0.96041   +0.97208     +1.215106 
  28    0   28  6   0  0 0.015 01.1  0.00490   +0.98018   +0.98239     +0.225469 
  29    0   29  6   0  0 0.015 01.1  0.00499   +0.99736   +1.00533     +0.799110 
  30    0   30  6   0  0 0.015 01.1  0.00451   +0.90160   +0.90827     +0.739796 
  31    0   31  6   0  0 0.015 01.1  0.00434   +0.86792   +0.87301     +0.586460 
  32    0   32  6   0  0 0.015 01.1  0.00446   +0.89209   +0.89684     +0.532457 
  33    0   33  6   0  0 0.015 01.1  0.00445   +0.88900   +0.88320     -0.652418 
  34    0   34  6   0  0 0.015 01.1  0.00459   +0.91832   +0.92057     +0.245013 
  35    0   35  6   0  0 0.015 01.1  0.00464   +0.92864   +0.93195     +0.356435 
  36    0   36  6   0  0 0.015 01.1  0.00471   +0.94217   +0.95105     +0.942505 
  37    0   37  6   0  0 0.015 01.1  0.00477   +0.95419   +0.94034     -1.451493 
  38    0   38  6   0  0 0.015 01.1  0.00495   +0.99072   +0.98223     -0.856953 
  39    0   39  6   0  0 0.015 01.1  0.00476   +0.95166   +0.96559     +1.463758 
  40    0   40  6   0  0 0.015 01.1  0.00469   +0.93884   +0.94777     +0.951174 
  41    0   41  6   0  0 0.015 01.1  0.00488   +0.97682   +0.98069     +0.396184 
  42    0   42  6   0  0 0.015 01.1  0.00467   +0.93457   +0.93967     +0.545706 
  43    0   43  6   0  0 0.015 01.1  0.00500   +0.99978   +1.00902     +0.924203 
  44    0   44  6   0  0 0.015 01.1  0.00500   +0.99903   +0.99243     -0.660641 
  45    0   45  6   0  0 0.015 01.1  0.00515   +1.03109   +1.03619     +0.494622 
  46    0   46  6   0  0 0.015 01.1  0.00524   +1.04902   +1.03421     -1.411794 
  47    0   47  6   0  0 0.015 01.1  0.00508   +1.01581   +1.01716     +0.132899 
  48    0   48  6   0  0 0.015 01.1  0.00504   +1.00850   +1.00938     +0.087258 
  49    0   49  6   0  0 0.015 01.1  0.00510   +1.01939   +1.03080     +1.119297 
  50    0   50  6   0  0 0.015 01.1  0.00502   +1.00317   +0.99377     -0.937030 
  51    0   51  6   0  0 0.015 01.1  0.00521   +1.04162   +1.05510     +1.294138 
  52    0   52  6   0  0 0.015 01.1  0.00479   +0.95749   +0.97117     +1.428736 
  53    0   53  6   0  0 0.015 01.1  0.00472   +0.94450   +0.93972     -0.506088 
  54    0   54  6   0  0 0.015 01.1  0.00491   +0.98118   +0.98482     +0.370982 
  55    0   55  6   0  0 0.015 01.1  0.00515   +1.02972   +1.03055     +0.080604 
  56    0   56  6   0  0 0.015 01.1  0.00467   +0.93379   +0.93265     -0.122083 
  57    0   57  6   0  0 0.015 01.1  0.00464   +0.92770   +0.92376     -0.424706 
  58    0    1  2   0  0 0.020 01.0  0.00780   +0.91029   +0.90253     -0.852476 
  59    0    2  2   0  0 0.020 01.0  0.00199   -0.03800   -0.04297    +13.078947 
  60    0    3  2   0  0 0.020 01.0  0.02760   +3.88000   +3.86185     -0.467784 
  61    0    4  2   0  0 0.020 01.0  0.00173   -0.00000   -0.00271     +0.000000 
  62    0    5  2   0  0 0.020 01.0  0.00283   -0.16500   -0.16523     +0.139394 
  63    0    6  2   0  0 0.020 01.0  0.00809   -0.95300   -0.94329     -1.018888 
  64    0    7  2   0  0 0.020 01.0  0.00173   +0.00000   -0.00377     +0.000000 
  65    0    8  2   0  0 0.020 01.0  0.00903   +1.09500   +1.11269     +1.615525 
  66    0    9  2   0  0 0.020 01.0  0.00569   -0.59300   -0.57833     -2.473862 
  67    0   10  2   0  0 0.020 01.0  0.00257   -0.12600   -0.12092     -4.031746 
  68    0   11  2   0  0 0.020 01.0  0.00173   +0.00000   -0.00016     +0.000000 
  69    0   12  2   0  0 0.020 01.0  0.01188   +1.52200   +1.53339     +0.748357 
  70    0   13  2   0  0 0.020 01.0  0.00326   -0.22900   -0.22985     +0.371179 
  71    0   14  2   0  0 0.020 01.0  0.00262   -0.13300   -0.13428     +0.962406 
  72    0   15  2   0  0 0.020 01.0  0.00359   -0.27900   -0.28904     +3.598566 
  73    0   16  2   0  0 0.020 01.0  0.00537   -0.54600   -0.53224     -2.520147 
  74    0   17  2   0  0 0.020 01.0  0.00529   -0.53300   -0.54748     +2.716698 
  75    0   18  2   0  0 0.020 01.0  0.00403   -0.34500   -0.34558     +0.168116 
  76    0   19  2   0  0 0.020 01.0  0.00201   -0.04200   -0.04338     +3.285714 
  77    0   20  2   0  0 0.020 01.0  0.00193   -0.02900   -0.02861     -1.344828 
  78    0   21  2   0  0 0.020 01.0  0.00173   -0.00000   +0.00518     +0.000000 
  79    0   22  2   0  0 0.020 01.0  0.00173   -0.00000   +0.00419     +0.000000 
  80    0   23  2   0  0 0.020 01.0  0.00227   -0.08000   -0.08660     +8.250000 
  81    0   24  2   0  0 0.020 01.0  0.00173   +0.00000   +0.00292     +0.000000 
  82    0   25  2   0  0 0.020 01.0  0.00227   -0.08000   -0.08020     +0.250000 
  83    0   26  2   0  0 0.020 01.0  0.00173   +0.00000   -0.00114     +0.000000 
  84    0   27  2   0  0 0.020 01.0  0.00252   -0.11800   -0.11311     -4.144068 
  85    0   28  2   0  0 0.020 01.0  0.00212   -0.05800   -0.05324     -8.206897 
  86    0   29  2   0  0 0.020 01.0  0.00317   -0.21600   -0.20651     -4.393519 
  87    0   30  2   0  0 0.020 01.0  0.00204   -0.04600   -0.04973     +8.108696 
  88    0   31  2   0  0 0.020 01.0  0.00223   -0.07400   -0.06906     -6.675676 
  89    0   32  2   0  0 0.020 01.0  0.00187   -0.02000   -0.02216    +10.800000 
  90    0   33  2   0  0 0.020 01.0  0.00205   -0.04800   -0.04909     +2.270833 
  91    0   34  2   0  0 0.020 01.0  0.00173   -0.00000   +0.00329     +0.000000 
  92    0   35  2   0  0 0.020 01.0  0.00224   -0.07600   -0.07777     +2.328947 
  93    0   36  2   0  0 0.020 01.0  0.00173   -0.00000   -0.00077     +0.000000 
  94    0   37  2   0  0 0.020 01.0  0.00173   +0.00000   -0.00425     +0.000000 
  95    0   38  2   0  0 0.020 01.0  0.00292   -0.17800   -0.17507     -1.646067 
  96    0   39  2   0  0 0.020 01.0  0.00173   +0.00000   +0.00241     +0.000000 
  97    0   40  2   0  0 0.020 01.0  0.00173   +0.00000   -0.00207     +0.000000 
  98    0   41  2   0  0 0.020 01.0  0.00227   -0.08000   -0.08220     +2.750000 
  99    0   42  2   0  0 0.020 01.0  0.00233   -0.09000   -0.08672     -3.644444 
 100    0   43  2   0  0 0.020 01.0  0.00190   -0.02500   -0.01947    -22.120000 
 101    0   44  2   0  0 0.020 01.0  0.00275   -0.15200   -0.14872     -2.157895 
 102    0   45  2   0  0 0.020 01.0  0.00173   +0.00000   -0.00426     +0.000000 
 103    0   46  2   0  0 0.020 01.0  0.00173   +0.00000   -0.00030     +0.000000 
 104    0   47  2   0  0 0.020 01.0  0.00425   -0.37700   -0.37355     -0.915119 
 105    0   48  2   0  0 0.020 01.0  0.00173   -0.00000   +0.00026     +0.000000 
 106    0   49  2   0  0 0.020 01.0  0.00326   -0.22900   -0.23602     +3.065502 
 107    0   50  2   0  0 0.020 01.0  0.00351   -0.26700   -0.27173     +1.771536 
 108    0   51  2   0  0 0.020 01.0  0.00326   -0.22900   -0.21947     -4.161572 
 109    0   52  2   0  0 0.020 01.0  0.00215   -0.06200   -0.05820     -6.129032 
 110    0   53  2   0  0 0.020 01.0  0.00343   -0.25400   -0.24509     -3.507874 
 111    0   54  2   0  0 0.020 01.0  0.00208   -0.05200   -0.05389     +3.634615 
 112    0   55  2   0  0 0.020 01.0  0.00231   -0.08600   -0.09003     +4.686047 
 113    0   56  2   0  0 0.020 01.0  0.00238   -0.09700   -0.09442     -2.659794 
 114    0   57  2   0  0 0.020 01.0  0.00230   -0.08500   -0.08700     +2.352941 
 115    0    1  5   0  0 0.020 01.0  0.01342   +1.75345   +1.74848     -0.283441 
 116    0    2  5   0  0 0.020 01.0  0.00919   -1.11911   -1.09656     -2.014994 
 117    0    3  5   0  0 0.020 01.0  0.00418   -0.36700   -0.35863     -2.280654 
 118    0    4  5   0  0 0.020 01.0  0.00173   +0.00000   -0.00113     +0.000000 
 119    0    5  5   0  0 0.020 01.0  0.00207   -0.05100   -0.04809     -5.705882 
 120    0    6  5   0  0 0.020 01.0  0.00262   +0.13237   +0.12908     -2.485457 
 121    0    7  5   0  0 0.020 01.0  0.00173   +0.00000   -0.00216     +0.000000 
 122    0    8  5   0  0 0.020 01.0  0.00656   +0.72342   +0.71542     -1.105858 
 123    0    9  5   0  0 0.020 01.0  0.00278   -0.15700   -0.16493     +5.050955 
 124    0   10  5   0  0 0.020 01.0  0.00207   -0.05000   -0.04482    -10.360000 
 125    0   11  5   0  0 0.020 01.0  0.00173   +0.00000   +0.00193     +0.000000 
 126    0   12  5   0  0 0.020 01.0  0.00595   +0.63282   +0.62333     -1.499637 
 127    0   13  5   0  0 0.020 01.0  0.00193   -0.02900   -0.02903     +0.103448 
 128    0   14  5   0  0 0.020 01.0  0.00218   -0.06700   -0.06320     -5.671642 
 129    0   15  5   0  0 0.020 01.0  0.00215   -0.06300   -0.06455     +2.460317 
 130    0   16  5   0  0 0.020 01.0  0.00199   -0.03800   -0.04135     +8.815789 
 131    0   17  5   0  0 0.020 01.0  0.00241   -0.10200   -0.09878     -3.156863 
 132    0   18  5   0  0 0.020 01.0  0.00256   -0.12400   -0.11981     -3.379032 
 133    0   19  5   0  0 0.020 01.0  0.00179   -0.00800   -0.00593    -25.875000 
 134    0   20  5   0  0 0.020 01.0  0.00182   -0.01300   -0.01169    -10.076923 
 135    0   21  5   0  0 0.020 01.0  0.00173   +0.00000   +0.00273     +0.000000 
 136    0   22  5   0  0 0.020 01.0  0.00173   +0.00000   +0.00012     +0.000000 
 137    0   23  5   0  0 0.020 01.0  0.00191   -0.02700   -0.02896     +7.259259 
 138    0   24  5   0  0 0.020 01.0  0.00173   -0.00000   -0.00519     +0.000000 
 139    0   25  5   0  0 0.020 01.0  0.00201   -0.04100   -0.04003     -2.365854 
 140    0   26  5   0  0 0.020 01.0  0.00173   +0.00000   -0.00341     +0.000000 
 141    0   27  5   0  0 0.020 01.0  0.00177   -0.00600   -0.00925    +54.166667 
 142    0   28  5   0  0 0.020 01.0  0.00193   -0.02900   -0.03304    +13.931034 
 143    0   29  5   0  0 0.020 01.0  0.00195   -0.03300   -0.03294     -0.181818 
 144    0   30  5   0  0 0.020 01.0  0.00189   -0.02300   -0.02846    +23.739130 
 145    0   31  5   0  0 0.020 01.0  0.00198   -0.03700   -0.03734     +0.918919 
 146    0   32  5   0  0 0.020 01.0  0.00180   -0.01000   -0.01490    +49.000000 
 147    0   33  5   0  0 0.020 01.0  0.00189   -0.02400   -0.02466     +2.750000 
 148    0   34  5   0  0 0.020 01.0  0.00173   -0.00000   -0.00350     +0.000000 
 149    0   35  5   0  0 0.020 01.0  0.00199   -0.03800   -0.03714     -2.263158 
 150    0   36  5   0  0 0.020 01.0  0.00173   +0.00000   +0.00331     +0.000000 
 151    0   37  5   0  0 0.020 01.0  0.00173   +0.00000   -0.00431     +0.000000 
 152    0   38  5   0  0 0.020 01.0  0.00233   -0.08900   -0.09273     +4.191011 
 153    0   39  5   0  0 0.020 01.0  0.00173   -0.00000   -0.00264     +0.000000 
 154    0   40  5   0  0 0.020 01.0  0.00173   -0.00000   -0.00154     +0.000000 
 155    0   41  5   0  0 0.020 01.0  0.00199   -0.03800   -0.03908     +2.842105 
 156    0   42  5   0  0 0.020 01.0  0.00211   -0.05600   -0.06088     +8.714286 
 157    0   43  5   0  0 0.020 01.0  0.00182   -0.01300   -0.01401     +7.769231 
 158    0   44  5   0  0 0.020 01.0  0.00189   -0.02300   -0.02101     -8.652174 
 159    0   45  5   0  0 0.020 01.0  0.00173   +0.00000   +0.00045     +0.000000 
 160    0   46  5   0  0 0.020 01.0  0.00173   +0.00000   -0.00149     +0.000000 
 161    0   47  5   0  0 0.020 01.0  0.00271   -0.14700   -0.14437     -1.789116 
 162    0   48  5   0  0 0.020 01.0  0.00173   +0.00000   +0.00186     +0.000000 
 163    0   49  5   0  0 0.020 01.0  0.00245   -0.10800   -0.11342     +5.018519 
 164    0   50  5   0  0 0.020 01.0  0.00262   -0.13300   -0.13395     +0.714286 
 165    0   51  5   0  0 0.020 01.0  0.00218   -0.06700   -0.06128     -8.537313 
 166    0   52  5   0  0 0.020 01.0  0.00192   -0.02800   -0.02719     -2.892857 
 167    0   53  5   0  0 0.020 01.0  0.00258   -0.12700   -0.12580     -0.944882 
 168    0   54  5   0  0 0.020 01.0  0.00185   -0.01800   -0.01506    -16.333333 
 169    0   55  5   0  0 0.020 01.0  0.00202   -0.04300   -0.04607     +7.139535 
 170    0   56  5   0  0 0.020 01.0  0.00192   -0.02800   -0.02577     -7.964286 
 171    0   57  5   0  0 0.020 01.0  0.00190   -0.02500   -0.02734     +9.360000 
 172    1    2  1   0  0 0.020 01.0  0.00448   -0.41251   -0.41061     -0.460595 
 173    2    3  1   0  0 0.020 01.0  0.00483   -0.46371   -0.45980     -0.843199 
 174    3    4  1   0  0 0.020 01.0  0.01282   +1.66309   +1.65531     -0.467804 
 175    4    5  1   0  0 0.020 01.0  0.00524   +0.52582   +0.51793     -1.500513 
 176    4    6  1   0  0 0.020 01.0  0.00629   +0.68393   +0.70037     +2.403755 
 177    6    7  1   0  0 0.020 01.0  0.00278   +0.15691   +0.15606     -0.541712 
 178    6    8  1   0  0 0.020 01.0  0.00246   -0.10875   -0.10828     -0.432184 
 179    8    9  1   0  0 0.020 01.0  0.00499   +0.48802   +0.49206     +0.827835 
 180    9   10  1   0  0 0.020 01.0  0.00182   +0.01346   +0.01530    +13.670134 
 181    9   11  1   0  0 0.020 01.0  0.00193   -0.02970   -0.03041     +2.390572 
 182    9   12  1   0  0 0.020 01.0  0.00313   -0.20923   -0.21537     +2.934570 
 183    9   13  1   0  0 0.020 01.0  0.00285   -0.16705   -0.16373     -1.987429 
 184   13   14  1   0  0 0.020 01.0  0.00201   -0.04221   -0.03707    -12.177209 
 185   13   15  1   0  0 0.020 01.0  0.00526   -0.52846   -0.53254     +0.772055 
 186    1   15  1   0  0 0.020 01.0  0.00458   +0.42662   +0.43043     +0.893066 
 187    1   16  1   0  0 0.020 01.0  0.00412   +0.35846   +0.36810     +2.689282 
 188    1   17  1   0  0 0.020 01.0  0.00532   +0.53773   +0.53718     -0.102282 
 189    3   15  1   0  0 0.020 01.0  0.01337   +1.74588   +1.75630     +0.596834 
 190    4   18  1   0  0 0.020 01.0  0.00297   +0.18546   +0.18484     -0.334304 
 191    4   18  1   0  0 0.020 01.0  0.00332   +0.23742   +0.22964     -3.276893 
 192    5    6  1   0  0 0.020 01.0  0.00402   +0.34255   +0.33323     -2.720771 
 193    7    8  1   0  0 0.020 01.0  0.00502   -0.49287   -0.50467     +2.394140 
 194   10   12  1   0  0 0.020 01.0  0.00511   -0.50590   -0.50756     +0.328128 
 195   11   13  1   0  0 0.020 01.0  0.00388   -0.32234   -0.31212     -3.170565 
 196   12   13  1   0  0 0.020 01.0  0.00573   +0.59986   +0.60446     +0.766846 
 197   12   16  1   0  0 0.020 01.0  0.00302   +0.19377   +0.20157     +4.025391 
 198   12   17  1   0  0 0.020 01.0  0.00175   +0.00191   -0.00267   -239.790576 
 199   14   15  1   0  0 0.020 01.0  0.00705   -0.79779   -0.80596     +1.024079 
...
Número de medidores SCADA:     491
Número de PMUs:                0
Número de medidas das PMUs:    0
----------------------------------------------------------------------------------

Não há medidas de ângulo.
Não há medidores desabilitados.
============================== Estado Estimado ===================================
                 Barra     Mod(pu)    Ang(graus)              
----------------------------------------------------------------------------------
                    1            1.0413              0.00        
                    2            1.0115              1.18        
                    3            1.0100              3.72        
                    4            0.9951              0.25        
                    5            0.9792             -4.27        
                    6            0.9808             -5.89        
                    7            0.9797             -6.88        
                    8            1.0056             -5.02        
                    9            0.9817             -6.24        
                   10            0.9794             -6.35        
                   11            0.9698             -5.87        
                   12            1.0158             -2.93        
                   13            0.9750             -4.41        
                   14            0.9652             -4.12        
                   15            0.9897             -1.67        
                   16            1.0152             -3.85        
                   17            1.0188             -3.01        
                   18            1.0051             -5.10        
                   19            0.9551             -7.85        
                   20            0.9419             -8.65        
                   21            0.9875             -8.99        
                   22            0.9872             -9.07        
                   23            0.9849             -9.23        
                   24            0.9670            -10.99        
                   25            0.9313            -17.75        
                   26            0.9306            -10.80        
                   27            0.9611            -10.54        
                   28            0.9808             -9.81        
                   29            0.9980             -9.27        
                   30            0.9047            -18.49        
                   31            0.8708            -19.26        
                   32            0.8941            -17.62        
                   33            0.8911            -17.68        
                   34            0.9186            -10.80        
                   35            0.9292            -10.47        
                   36            0.9427            -10.09        
                   37            0.9546             -9.81        
                   38            0.9916             -8.78        
                   39            0.9520             -9.87        
                   40            0.9393            -10.15        
                   41            0.9777            -10.96        
                   42            0.9360            -12.74        
                   43            1.0007             -7.36        
                   44            1.0001             -7.65        
                   45            1.0319             -4.40        
                   46            1.0499             -6.44        
                   47            1.0168             -8.31        
                   48            1.0094             -8.47        
                   49            1.0198             -8.71        
                   50            1.0033             -9.24        
                   51            1.0427             -7.81        
                   52            0.9577            -10.82        
                   53            0.9448            -11.41        
                   54            0.9821             -9.95        
                   55            1.0304             -8.10        
                   56            0.9352            -13.36        
                   57            0.9284            -14.02        
----------------------------------------------------------------------------------
Convergiu em:    3 iteraçoes. 
----------------------------------------------------------------------------------
--- RESIDUOS NORMALIZADOS --------------------------------------------------------
   N    D    P  TP      Real     Medido   Estimado      Med-Est        rn 
----------------------------------------------------------------------------------
 350   18    4  1    -0.1855    -0.1842    -0.2220  +3.7766e-02      0.741 
 190    4   18  1    +0.1855    +0.1848    +0.2220  -3.7176e-02      0.730 
  75    0   18  2    -0.3450    -0.3456    -0.3146  -3.1006e-02      0.629 
 430   18    4  4    -0.0278    -0.0328    -0.0185  -1.4265e-02      0.347 
 412    2    1  4    -1.2660    -1.2873    -1.2582  -2.9171e-02      0.323 
 351   18    4  1    -0.2374    -0.2360    -0.2220  -1.4014e-02      0.258 
  73    0   16  2    -0.5460    -0.5322    -0.5476  +1.5311e-02      0.253 
 109    0   52  2    -0.0620    -0.0582    -0.0663  +8.0607e-03      0.244 
  58    0    1  2    +0.9103    +0.9025    +0.9178  -1.5224e-02      0.232 
   2    0    2  6    +1.0100    +0.9951    +1.0115  -1.6391e-02      0.232 
  86    0   29  2    -0.2160    -0.2065    -0.2149  +8.4269e-03      0.224 
  46    0   46  6    +1.0490    +1.0342    +1.0499  -1.5652e-02      0.218 
 212    7   29  1    +0.6492    +0.6661    +0.6509  +1.5201e-02      0.217 
 132    0   18  5    -0.1240    -0.1198    -0.1284  +8.6093e-03      0.215 
 252    1    2  4    +1.1749    +1.1479    +1.1660  -1.8126e-02      0.212 
  37    0   37  6    +0.9542    +0.9403    +0.9546  -1.4288e-02      0.209 
 138    0   24  5    -0.0000    -0.0052    +0.0004  -5.5973e-03      0.206 
 242   11   43  1    +0.1741    +0.1820    +0.1722  +9.8046e-03      0.205 
  39    0   39  6    +0.9517    +0.9656    +0.9520  +1.3583e-02      0.199 
 243   44   45  1    -0.4771    -0.4872    -0.4739  -1.3313e-02      0.199 
  52    0   52  6    +0.9575    +0.9712    +0.9577  +1.3491e-02      0.198 
  66    0    9  2    -0.5930    -0.5783    -0.5885  +1.0177e-02      0.197 
  24    0   24  6    +0.9659    +0.9535    +0.9670  -1.3465e-02      0.196 
 250   38   48  1    -0.2471    -0.2556    -0.2456  -1.0049e-02      0.194 
  85    0   28  2    -0.0580    -0.0532    -0.0594  +6.1530e-03      0.193 
  26    0   26  6    +0.9298    +0.9433    +0.9306  +1.2704e-02      0.189 
 241   54   55  1    -0.1905    -0.1816    -0.1911  +9.5651e-03      0.189 
 291   28   29  4    -0.1142    -0.1073    -0.1153  +8.0060e-03      0.185 
 447   25   24  4    -0.0241    -0.0297    -0.0219  -7.7637e-03      0.185 
 176    4    6  1    +0.6839    +0.7004    +0.6863  +1.4061e-02      0.183 
 347   16    1  1    -0.3529    -0.3640    -0.3530  -1.0984e-02      0.178 
  74    0   17  2    -0.5330    -0.5475    -0.5371  -1.0370e-02      0.176 
  21    0   21  6    +0.9859    +0.9753    +0.9875  -1.2195e-02      0.176 
 175    4    5  1    +0.5258    +0.5179    +0.5301  -1.2156e-02      0.175 
 198   12   17  1    +0.0019    -0.0027    +0.0038  -6.4506e-03      0.174 
  51    0   51  6    +1.0416    +1.0551    +1.0427  +1.2448e-02      0.174 
 110    0   53  2    -0.2540    -0.2451    -0.2534  +8.3461e-03      0.174 
  62    0    5  2    -0.1650    -0.1652    -0.1716  +6.3330e-03      0.173 
 460   37   36  4    +0.1347    +0.1394    +0.1321  +7.3484e-03      0.168 
  15    0   15  6    +0.9888    +0.9780    +0.9897  -1.1722e-02      0.168 
 201   19   20  1    +0.0329    +0.0272    +0.0337  -6.5506e-03      0.164 
 435   13   11  4    -0.0326    -0.0268    -0.0333  +6.4733e-03      0.164 
 362   20   21  1    +0.0035    +0.0008    +0.0069  -6.1383e-03      0.162 
 219   35   36  1    -0.1783    -0.1864    -0.1789  -7.5504e-03      0.162 
 391   47   46  1    -0.6117    -0.5956    -0.6071  +1.1495e-02      0.162 
  27    0   27  6    +0.9604    +0.9721    +0.9611  +1.1006e-02      0.161 
 354   12   10  1    +0.5140    +0.5020    +0.5127  -1.0761e-02      0.159 
 382   39   37  1    -0.0485    -0.0545    -0.0484  -6.1638e-03      0.159 
 331    9   55  4    +0.1254    +0.1188    +0.1257  -6.8857e-03      0.159 
   8    0    8  6    +1.0050    +0.9946    +1.0056  -1.1045e-02      0.157 
  61    0    4  2    -0.0000    -0.0027    -0.0052  +2.4647e-03      0.156 
  49    0   49  6    +1.0194    +1.0308    +1.0198  +1.1042e-02      0.156 
 356   13   12  1    -0.5887    -0.6032    -0.5926  -1.0582e-02      0.155 
 187    1   16  1    +0.3585    +0.3681    +0.3585  +9.5581e-03      0.155 
 102    0   45  2    +0.0000    -0.0043    -0.0006  -3.6812e-03      0.154 
 343   13    9  1    +0.1689    +0.1748    +0.1669  +7.8768e-03      0.152 
  88    0   31  2    -0.0740    -0.0691    -0.0746  +5.5894e-03      0.150 
 330   38   48  4    -0.2052    -0.1990    -0.2066  +7.5315e-03      0.150 
 420   10    9  4    -0.0338    -0.0383    -0.0321  -6.1811e-03      0.149 
 232   47   48  1    +0.2347    +0.2435    +0.2361  +7.3739e-03      0.148 
 144    0   30  5    -0.0230    -0.0285    -0.0236  -4.8679e-03      0.148 
  71    0   14  2    -0.1330    -0.1343    -0.1390  +4.6962e-03      0.148 
 165    0   51  5    -0.0670    -0.0613    -0.0664  +5.1139e-03      0.146 
  14    0   14  6    +0.9644    +0.9552    +0.9652  -1.0017e-02      0.145 
 459   36   35  4    +0.0926    +0.0862    +0.0922  -5.9762e-03      0.145 
 266    1   15  4    +0.4531    +0.4667    +0.4574  +9.3472e-03      0.144 
 216   32   33  1    +0.0481    +0.0427    +0.0483  -5.5520e-03      0.144 
 309   15   45  4    +0.0545    +0.0496    +0.0555  -5.8675e-03      0.144 
 425   15   13  4    +0.0014    -0.0023    +0.0034  -5.6508e-03      0.143 
 116    0    2  5    -1.1191    -1.0966    -1.1076  +1.1054e-02      0.141 
 426   15    1  4    -0.5179    -0.5316    -0.5220  -9.6944e-03      0.141 
 117    0    3  5    -0.3670    -0.3586    -0.3655  +6.8301e-03      0.141 
 191    4   18  1    +0.2374    +0.2296    +0.2220  +7.6240e-03      0.141 
 392   48   47  1    -0.2334    -0.2278    -0.2348  +6.9154e-03      0.139 
 236   10   51  1    +0.3933    +0.3847    +0.3929  -8.1788e-03      0.139 
 211   28   29  1    -0.2414    -0.2339    -0.2409  +6.9637e-03      0.138 
 491   55    9  4    -0.1148    -0.1206    -0.1146  -5.9281e-03      0.138 
 423   13    9  4    -0.1097    -0.1153    -0.1086  -6.6726e-03      0.138 
 197   12   16  1    +0.1938    +0.2016    +0.1953  +6.3196e-03      0.137 
  50    0   50  6    +1.0032    +0.9938    +1.0033  -9.5443e-03      0.136 
 440   19   18  4    -0.0166    -0.0212    -0.0158  -5.3383e-03      0.135 
  38    0   38  6    +0.9907    +0.9822    +0.9916  -9.3779e-03      0.135 
 403   45   44  1    +0.4913    +0.4789    +0.4879  -9.0103e-03      0.134 
 292    7   29  4    +0.2510    +0.2432    +0.2501  -6.8520e-03      0.134 
 142    0   28  5    -0.0290    -0.0330    -0.0288  -4.2512e-03      0.133 
 322   11   43  4    +0.0789    +0.0846    +0.0791  +5.4591e-03      0.131 
 195   11   13  1    -0.3223    -0.3121    -0.3196  +7.4391e-03      0.129 
 156    0   42  5    -0.0560    -0.0609    -0.0563  -4.5887e-03      0.129 
 256    4    6  4    -0.0863    -0.0891    -0.0832  -5.8913e-03      0.128 
 244   40   56  1    +0.0434    +0.0486    +0.0430  +5.6042e-03      0.128 
 385   41   11  1    -0.1179    -0.1115    -0.1177  +6.2156e-03      0.127 
 489   49   38  4    +0.1103    +0.1034    +0.1095  -6.1191e-03      0.127 
  67    0   10  2    -0.1260    -0.1209    -0.1249  +3.9700e-03      0.127 
...